  
       XFOIL         Version 6.99
  
 Calculated polar for: NACA 642-015A AIRFOIL                           
  
 1 1 Reynolds number fixed          Mach number fixed         
  
 xtrf =   1.000 (top)        1.000 (bottom)  
 Mach =   0.000     Re =     0.000 e 6     Ncrit =   9.000
  
   alpha    CL        CD       CDp       CM     Top_Xtr  Bot_Xtr
  ------ -------- --------- --------- -------- -------- --------
  -5.000  -0.6111   0.00000  -0.00030   0.0121   0.0000   0.0000
  -4.950  -0.6050   0.00000  -0.00030   0.0120   0.0000   0.0000
  -4.900  -0.5989   0.00000  -0.00030   0.0118   0.0000   0.0000
  -4.850  -0.5928   0.00000  -0.00030   0.0117   0.0000   0.0000
  -4.800  -0.5867   0.00000  -0.00030   0.0116   0.0000   0.0000
  -4.750  -0.5806   0.00000  -0.00030   0.0115   0.0000   0.0000
  -4.700  -0.5745   0.00000  -0.00030   0.0114   0.0000   0.0000
  -4.650  -0.5684   0.00000  -0.00030   0.0112   0.0000   0.0000
  -4.600  -0.5623   0.00000  -0.00030   0.0111   0.0000   0.0000
  -4.550  -0.5562   0.00000  -0.00030   0.0110   0.0000   0.0000
  -4.500  -0.5501   0.00000  -0.00030   0.0109   0.0000   0.0000
  -4.450  -0.5440   0.00000  -0.00030   0.0108   0.0000   0.0000
  -4.400  -0.5379   0.00000  -0.00030   0.0106   0.0000   0.0000
  -4.350  -0.5318   0.00000  -0.00030   0.0105   0.0000   0.0000
  -4.300  -0.5257   0.00000  -0.00030   0.0104   0.0000   0.0000
  -4.250  -0.5196   0.00000  -0.00030   0.0103   0.0000   0.0000
  -4.200  -0.5135   0.00000  -0.00030   0.0102   0.0000   0.0000
  -4.150  -0.5074   0.00000  -0.00030   0.0100   0.0000   0.0000
  -4.100  -0.5013   0.00000  -0.00030   0.0099   0.0000   0.0000
  -4.050  -0.4952   0.00000  -0.00030   0.0098   0.0000   0.0000
  -4.000  -0.4891   0.00000  -0.00030   0.0097   0.0000   0.0000
  -3.950  -0.4830   0.00000  -0.00030   0.0096   0.0000   0.0000
  -3.900  -0.4769   0.00000  -0.00030   0.0094   0.0000   0.0000
  -3.850  -0.4708   0.00000  -0.00030   0.0093   0.0000   0.0000
  -3.800  -0.4647   0.00000  -0.00030   0.0092   0.0000   0.0000
  -3.750  -0.4586   0.00000  -0.00030   0.0091   0.0000   0.0000
  -3.700  -0.4525   0.00000  -0.00030   0.0090   0.0000   0.0000
  -3.650  -0.4464   0.00000  -0.00030   0.0088   0.0000   0.0000
  -3.600  -0.4403   0.00000  -0.00030   0.0087   0.0000   0.0000
  -3.550  -0.4342   0.00000  -0.00030   0.0086   0.0000   0.0000
  -3.500  -0.4281   0.00000  -0.00030   0.0085   0.0000   0.0000
  -3.450  -0.4220   0.00000  -0.00030   0.0084   0.0000   0.0000
  -3.400  -0.4159   0.00000  -0.00030   0.0082   0.0000   0.0000
  -3.350  -0.4097   0.00000  -0.00030   0.0081   0.0000   0.0000
  -3.300  -0.4036   0.00000  -0.00030   0.0080   0.0000   0.0000
  -3.250  -0.3975   0.00000  -0.00030   0.0079   0.0000   0.0000
  -3.200  -0.3914   0.00000  -0.00029   0.0078   0.0000   0.0000
  -3.150  -0.3853   0.00000  -0.00029   0.0076   0.0000   0.0000
  -3.100  -0.3792   0.00000  -0.00029   0.0075   0.0000   0.0000
  -3.050  -0.3731   0.00000  -0.00029   0.0074   0.0000   0.0000
  -3.000  -0.3670   0.00000  -0.00029   0.0073   0.0000   0.0000
  -2.950  -0.3609   0.00000  -0.00029   0.0072   0.0000   0.0000
  -2.900  -0.3548   0.00000  -0.00029   0.0070   0.0000   0.0000
  -2.850  -0.3486   0.00000  -0.00029   0.0069   0.0000   0.0000
  -2.800  -0.3425   0.00000  -0.00029   0.0068   0.0000   0.0000
  -2.750  -0.3364   0.00000  -0.00029   0.0067   0.0000   0.0000
  -2.700  -0.3303   0.00000  -0.00029   0.0065   0.0000   0.0000
  -2.650  -0.3242   0.00000  -0.00029   0.0064   0.0000   0.0000
  -2.600  -0.3181   0.00000  -0.00029   0.0063   0.0000   0.0000
  -2.550  -0.3120   0.00000  -0.00029   0.0062   0.0000   0.0000
  -2.500  -0.3059   0.00000  -0.00029   0.0061   0.0000   0.0000
  -2.450  -0.2997   0.00000  -0.00029   0.0059   0.0000   0.0000
  -2.400  -0.2936   0.00000  -0.00029   0.0058   0.0000   0.0000
  -2.350  -0.2875   0.00000  -0.00029   0.0057   0.0000   0.0000
  -2.300  -0.2814   0.00000  -0.00029   0.0056   0.0000   0.0000
  -2.250  -0.2753   0.00000  -0.00029   0.0055   0.0000   0.0000
  -2.200  -0.2692   0.00000  -0.00029   0.0053   0.0000   0.0000
  -2.150  -0.2631   0.00000  -0.00029   0.0052   0.0000   0.0000
  -2.100  -0.2570   0.00000  -0.00029   0.0051   0.0000   0.0000
  -2.050  -0.2508   0.00000  -0.00029   0.0050   0.0000   0.0000
  -2.000  -0.2447   0.00000  -0.00029   0.0049   0.0000   0.0000
  -1.950  -0.2386   0.00000  -0.00029   0.0047   0.0000   0.0000
  -1.900  -0.2325   0.00000  -0.00029   0.0046   0.0000   0.0000
  -1.850  -0.2264   0.00000  -0.00029   0.0045   0.0000   0.0000
  -1.800  -0.2203   0.00000  -0.00029   0.0044   0.0000   0.0000
  -1.750  -0.2141   0.00000  -0.00029   0.0043   0.0000   0.0000
  -1.700  -0.2080   0.00000  -0.00029   0.0041   0.0000   0.0000
  -1.650  -0.2019   0.00000  -0.00029   0.0040   0.0000   0.0000
  -1.600  -0.1958   0.00000  -0.00029   0.0039   0.0000   0.0000
  -1.550  -0.1897   0.00000  -0.00029   0.0038   0.0000   0.0000
  -1.500  -0.1836   0.00000  -0.00029   0.0036   0.0000   0.0000
  -1.450  -0.1774   0.00000  -0.00029   0.0035   0.0000   0.0000
  -1.400  -0.1713   0.00000  -0.00029   0.0034   0.0000   0.0000
  -1.350  -0.1652   0.00000  -0.00029   0.0033   0.0000   0.0000
  -1.300  -0.1591   0.00000  -0.00029   0.0032   0.0000   0.0000
  -1.250  -0.1530   0.00000  -0.00029   0.0030   0.0000   0.0000
  -1.200  -0.1469   0.00000  -0.00029   0.0029   0.0000   0.0000
  -1.150  -0.1407   0.00000  -0.00029   0.0028   0.0000   0.0000
  -1.100  -0.1346   0.00000  -0.00029   0.0027   0.0000   0.0000
  -1.050  -0.1285   0.00000  -0.00029   0.0026   0.0000   0.0000
  -1.000  -0.1224   0.00000  -0.00029   0.0024   0.0000   0.0000
  -0.950  -0.1163   0.00000  -0.00029   0.0023   0.0000   0.0000
  -0.900  -0.1102   0.00000  -0.00029   0.0022   0.0000   0.0000
  -0.850  -0.1040   0.00000  -0.00029   0.0021   0.0000   0.0000
  -0.800  -0.0979   0.00000  -0.00029   0.0019   0.0000   0.0000
  -0.750  -0.0918   0.00000  -0.00029   0.0018   0.0000   0.0000
  -0.700  -0.0857   0.00000  -0.00029   0.0017   0.0000   0.0000
  -0.650  -0.0796   0.00000  -0.00029   0.0016   0.0000   0.0000
  -0.600  -0.0735   0.00000  -0.00029   0.0015   0.0000   0.0000
  -0.550  -0.0673   0.00000  -0.00029   0.0013   0.0000   0.0000
  -0.500  -0.0612   0.00000  -0.00029   0.0012   0.0000   0.0000
  -0.450  -0.0551   0.00000  -0.00029   0.0011   0.0000   0.0000
  -0.400  -0.0490   0.00000  -0.00029   0.0010   0.0000   0.0000
  -0.350  -0.0429   0.00000  -0.00029   0.0009   0.0000   0.0000
  -0.300  -0.0367   0.00000  -0.00029   0.0007   0.0000   0.0000
  -0.250  -0.0306   0.00000  -0.00029   0.0006   0.0000   0.0000
  -0.200  -0.0245   0.00000  -0.00029   0.0005   0.0000   0.0000
  -0.150  -0.0184   0.00000  -0.00029   0.0004   0.0000   0.0000
  -0.100  -0.0123   0.00000  -0.00029   0.0002   0.0000   0.0000
  -0.050  -0.0061   0.00000  -0.00029   0.0001   0.0000   0.0000
   0.000  -0.0000   0.00000  -0.00029   0.0000   0.0000   0.0000
   0.050   0.0061   0.00000  -0.00029  -0.0001   0.0000   0.0000
   0.100   0.0122   0.00000  -0.00029  -0.0002   0.0000   0.0000
   0.150   0.0183   0.00000  -0.00029  -0.0004   0.0000   0.0000
   0.200   0.0244   0.00000  -0.00029  -0.0005   0.0000   0.0000
   0.250   0.0306   0.00000  -0.00029  -0.0006   0.0000   0.0000
   0.300   0.0367   0.00000  -0.00029  -0.0007   0.0000   0.0000
   0.350   0.0428   0.00000  -0.00029  -0.0008   0.0000   0.0000
   0.400   0.0489   0.00000  -0.00029  -0.0010   0.0000   0.0000
   0.450   0.0550   0.00000  -0.00029  -0.0011   0.0000   0.0000
   0.500   0.0612   0.00000  -0.00029  -0.0012   0.0000   0.0000
   0.550   0.0673   0.00000  -0.00029  -0.0013   0.0000   0.0000
   0.600   0.0734   0.00000  -0.00029  -0.0014   0.0000   0.0000
   0.650   0.0795   0.00000  -0.00029  -0.0016   0.0000   0.0000
   0.700   0.0856   0.00000  -0.00029  -0.0017   0.0000   0.0000
   0.750   0.0917   0.00000  -0.00029  -0.0018   0.0000   0.0000
   0.800   0.0979   0.00000  -0.00029  -0.0019   0.0000   0.0000
   0.850   0.1040   0.00000  -0.00029  -0.0021   0.0000   0.0000
   0.900   0.1101   0.00000  -0.00029  -0.0022   0.0000   0.0000
   0.950   0.1162   0.00000  -0.00029  -0.0023   0.0000   0.0000
   1.000   0.1223   0.00000  -0.00029  -0.0024   0.0000   0.0000
   1.050   0.1285   0.00000  -0.00029  -0.0025   0.0000   0.0000
   1.100   0.1346   0.00000  -0.00029  -0.0027   0.0000   0.0000
   1.150   0.1407   0.00000  -0.00029  -0.0028   0.0000   0.0000
   1.200   0.1468   0.00000  -0.00029  -0.0029   0.0000   0.0000
   1.250   0.1529   0.00000  -0.00029  -0.0030   0.0000   0.0000
   1.300   0.1590   0.00000  -0.00029  -0.0031   0.0000   0.0000
   1.350   0.1652   0.00000  -0.00029  -0.0033   0.0000   0.0000
   1.400   0.1713   0.00000  -0.00029  -0.0034   0.0000   0.0000
   1.450   0.1774   0.00000  -0.00030  -0.0035   0.0000   0.0000
   1.500   0.1835   0.00000  -0.00030  -0.0036   0.0000   0.0000
   1.550   0.1896   0.00000  -0.00030  -0.0038   0.0000   0.0000
   1.600   0.1957   0.00000  -0.00030  -0.0039   0.0000   0.0000
   1.650   0.2019   0.00000  -0.00030  -0.0040   0.0000   0.0000
   1.700   0.2080   0.00000  -0.00030  -0.0041   0.0000   0.0000
   1.750   0.2141   0.00000  -0.00030  -0.0042   0.0000   0.0000
   1.800   0.2202   0.00000  -0.00030  -0.0044   0.0000   0.0000
   1.850   0.2263   0.00000  -0.00030  -0.0045   0.0000   0.0000
   1.900   0.2324   0.00000  -0.00030  -0.0046   0.0000   0.0000
   1.950   0.2386   0.00000  -0.00030  -0.0047   0.0000   0.0000
   2.000   0.2447   0.00000  -0.00030  -0.0048   0.0000   0.0000
   2.050   0.2508   0.00000  -0.00030  -0.0050   0.0000   0.0000
   2.100   0.2569   0.00000  -0.00030  -0.0051   0.0000   0.0000
   2.150   0.2630   0.00000  -0.00030  -0.0052   0.0000   0.0000
   2.200   0.2691   0.00000  -0.00030  -0.0053   0.0000   0.0000
   2.250   0.2752   0.00000  -0.00030  -0.0054   0.0000   0.0000
   2.300   0.2814   0.00000  -0.00030  -0.0056   0.0000   0.0000
   2.350   0.2875   0.00000  -0.00030  -0.0057   0.0000   0.0000
   2.400   0.2936   0.00000  -0.00030  -0.0058   0.0000   0.0000
   2.450   0.2997   0.00000  -0.00030  -0.0059   0.0000   0.0000
   2.500   0.3058   0.00000  -0.00030  -0.0061   0.0000   0.0000
   2.550   0.3119   0.00000  -0.00030  -0.0062   0.0000   0.0000
   2.600   0.3180   0.00000  -0.00030  -0.0063   0.0000   0.0000
   2.650   0.3241   0.00000  -0.00030  -0.0064   0.0000   0.0000
   2.700   0.3303   0.00000  -0.00030  -0.0065   0.0000   0.0000
   2.750   0.3364   0.00000  -0.00030  -0.0067   0.0000   0.0000
   2.800   0.3425   0.00000  -0.00030  -0.0068   0.0000   0.0000
   2.850   0.3486   0.00000  -0.00030  -0.0069   0.0000   0.0000
   2.900   0.3547   0.00000  -0.00030  -0.0070   0.0000   0.0000
   2.950   0.3608   0.00000  -0.00030  -0.0071   0.0000   0.0000
   3.000   0.3669   0.00000  -0.00030  -0.0073   0.0000   0.0000
   3.050   0.3730   0.00000  -0.00030  -0.0074   0.0000   0.0000
   3.100   0.3791   0.00000  -0.00030  -0.0075   0.0000   0.0000
   3.150   0.3853   0.00000  -0.00030  -0.0076   0.0000   0.0000
   3.200   0.3914   0.00000  -0.00030  -0.0077   0.0000   0.0000
   3.250   0.3975   0.00000  -0.00030  -0.0079   0.0000   0.0000
   3.300   0.4036   0.00000  -0.00030  -0.0080   0.0000   0.0000
   3.350   0.4097   0.00000  -0.00030  -0.0081   0.0000   0.0000
   3.400   0.4158   0.00000  -0.00030  -0.0082   0.0000   0.0000
   3.450   0.4219   0.00000  -0.00030  -0.0083   0.0000   0.0000
   3.500   0.4280   0.00000  -0.00030  -0.0085   0.0000   0.0000
   3.550   0.4341   0.00000  -0.00030  -0.0086   0.0000   0.0000
   3.600   0.4402   0.00000  -0.00030  -0.0087   0.0000   0.0000
   3.650   0.4463   0.00000  -0.00030  -0.0088   0.0000   0.0000
   3.700   0.4524   0.00000  -0.00030  -0.0089   0.0000   0.0000
   3.750   0.4585   0.00000  -0.00030  -0.0091   0.0000   0.0000
   3.800   0.4646   0.00000  -0.00030  -0.0092   0.0000   0.0000
   3.850   0.4708   0.00000  -0.00030  -0.0093   0.0000   0.0000
   3.900   0.4769   0.00000  -0.00030  -0.0094   0.0000   0.0000
   3.950   0.4830   0.00000  -0.00030  -0.0095   0.0000   0.0000
   4.000   0.4891   0.00000  -0.00030  -0.0097   0.0000   0.0000
   4.050   0.4952   0.00000  -0.00030  -0.0098   0.0000   0.0000
   4.100   0.5013   0.00000  -0.00030  -0.0099   0.0000   0.0000
   4.150   0.5074   0.00000  -0.00030  -0.0100   0.0000   0.0000
   4.200   0.5135   0.00000  -0.00030  -0.0101   0.0000   0.0000
   4.250   0.5196   0.00000  -0.00030  -0.0103   0.0000   0.0000
   4.300   0.5257   0.00000  -0.00030  -0.0104   0.0000   0.0000
   4.350   0.5318   0.00000  -0.00030  -0.0105   0.0000   0.0000
   4.400   0.5379   0.00000  -0.00030  -0.0106   0.0000   0.0000
   4.450   0.5440   0.00000  -0.00030  -0.0107   0.0000   0.0000
   4.500   0.5501   0.00000  -0.00030  -0.0109   0.0000   0.0000
   4.550   0.5562   0.00000  -0.00030  -0.0110   0.0000   0.0000
   4.600   0.5623   0.00000  -0.00030  -0.0111   0.0000   0.0000
   4.650   0.5684   0.00000  -0.00030  -0.0112   0.0000   0.0000
   4.700   0.5745   0.00000  -0.00030  -0.0113   0.0000   0.0000
   4.750   0.5806   0.00000  -0.00030  -0.0115   0.0000   0.0000
   4.800   0.5867   0.00000  -0.00030  -0.0116   0.0000   0.0000
   4.850   0.5928   0.00000  -0.00030  -0.0117   0.0000   0.0000
   4.900   0.5989   0.00000  -0.00030  -0.0118   0.0000   0.0000
   4.950   0.6050   0.00000  -0.00030  -0.0119   0.0000   0.0000
   5.000   0.6111   0.00000  -0.00030  -0.0121   0.0000   0.0000
   5.050   0.6172   0.00000  -0.00030  -0.0122   0.0000   0.0000
   5.100   0.6232   0.00000  -0.00030  -0.0123   0.0000   0.0000
   5.150   0.6293   0.00000  -0.00030  -0.0124   0.0000   0.0000
   5.200   0.6354   0.00000  -0.00030  -0.0125   0.0000   0.0000
   5.250   0.6415   0.00000  -0.00030  -0.0127   0.0000   0.0000
   5.300   0.6476   0.00000  -0.00030  -0.0128   0.0000   0.0000
   5.350   0.6537   0.00000  -0.00030  -0.0129   0.0000   0.0000
   5.400   0.6598   0.00000  -0.00030  -0.0130   0.0000   0.0000
   5.450   0.6659   0.00000  -0.00030  -0.0131   0.0000   0.0000
   5.500   0.6720   0.00000  -0.00030  -0.0133   0.0000   0.0000
   5.550   0.6781   0.00000  -0.00030  -0.0134   0.0000   0.0000
   5.600   0.6842   0.00000  -0.00030  -0.0135   0.0000   0.0000
   5.650   0.6903   0.00000  -0.00030  -0.0136   0.0000   0.0000
   5.700   0.6963   0.00000  -0.00030  -0.0137   0.0000   0.0000
   5.750   0.7024   0.00000  -0.00030  -0.0139   0.0000   0.0000
   5.800   0.7085   0.00000  -0.00030  -0.0140   0.0000   0.0000
   5.850   0.7146   0.00000  -0.00030  -0.0141   0.0000   0.0000
   5.900   0.7207   0.00000  -0.00030  -0.0142   0.0000   0.0000
   5.950   0.7268   0.00000  -0.00030  -0.0143   0.0000   0.0000
   6.000   0.7329   0.00000  -0.00030  -0.0144   0.0000   0.0000
   6.050   0.7390   0.00000  -0.00030  -0.0146   0.0000   0.0000
   6.100   0.7450   0.00000  -0.00030  -0.0147   0.0000   0.0000
   6.150   0.7511   0.00000  -0.00030  -0.0148   0.0000   0.0000
   6.200   0.7572   0.00000  -0.00030  -0.0149   0.0000   0.0000
   6.250   0.7633   0.00000  -0.00030  -0.0150   0.0000   0.0000
   6.300   0.7694   0.00000  -0.00031  -0.0152   0.0000   0.0000
   6.350   0.7754   0.00000  -0.00031  -0.0153   0.0000   0.0000
   6.400   0.7815   0.00000  -0.00031  -0.0154   0.0000   0.0000
   6.450   0.7876   0.00000  -0.00031  -0.0155   0.0000   0.0000
   6.500   0.7937   0.00000  -0.00031  -0.0156   0.0000   0.0000
   6.550   0.7998   0.00000  -0.00031  -0.0158   0.0000   0.0000
   6.600   0.8058   0.00000  -0.00031  -0.0159   0.0000   0.0000
   6.650   0.8119   0.00000  -0.00031  -0.0160   0.0000   0.0000
   6.700   0.8180   0.00000  -0.00031  -0.0161   0.0000   0.0000
   6.750   0.8241   0.00000  -0.00031  -0.0162   0.0000   0.0000
   6.800   0.8302   0.00000  -0.00031  -0.0163   0.0000   0.0000
   6.850   0.8362   0.00000  -0.00031  -0.0165   0.0000   0.0000
   6.900   0.8423   0.00000  -0.00031  -0.0166   0.0000   0.0000
   6.950   0.8484   0.00000  -0.00031  -0.0167   0.0000   0.0000
   7.000   0.8545   0.00000  -0.00031  -0.0168   0.0000   0.0000
   7.050   0.8605   0.00000  -0.00031  -0.0169   0.0000   0.0000
   7.100   0.8666   0.00000  -0.00031  -0.0170   0.0000   0.0000
   7.150   0.8727   0.00000  -0.00031  -0.0172   0.0000   0.0000
   7.200   0.8787   0.00000  -0.00031  -0.0173   0.0000   0.0000
   7.250   0.8848   0.00000  -0.00031  -0.0174   0.0000   0.0000
   7.300   0.8909   0.00000  -0.00031  -0.0175   0.0000   0.0000
   7.350   0.8969   0.00000  -0.00031  -0.0176   0.0000   0.0000
   7.400   0.9030   0.00000  -0.00031  -0.0178   0.0000   0.0000
   7.450   0.9091   0.00000  -0.00031  -0.0179   0.0000   0.0000
   7.500   0.9151   0.00000  -0.00031  -0.0180   0.0000   0.0000
   7.550   0.9212   0.00000  -0.00031  -0.0181   0.0000   0.0000
   7.600   0.9273   0.00000  -0.00031  -0.0182   0.0000   0.0000
   7.650   0.9333   0.00000  -0.00031  -0.0183   0.0000   0.0000
   7.700   0.9394   0.00000  -0.00031  -0.0185   0.0000   0.0000
   7.750   0.9455   0.00000  -0.00031  -0.0186   0.0000   0.0000
   7.800   0.9515   0.00000  -0.00031  -0.0187   0.0000   0.0000
   7.850   0.9576   0.00000  -0.00031  -0.0188   0.0000   0.0000
   7.900   0.9637   0.00000  -0.00031  -0.0189   0.0000   0.0000
   7.950   0.9697   0.00000  -0.00031  -0.0190   0.0000   0.0000
   8.000   0.9758   0.00000  -0.00031  -0.0192   0.0000   0.0000
   8.050   0.9818   0.00000  -0.00031  -0.0193   0.0000   0.0000
   8.100   0.9879   0.00000  -0.00031  -0.0194   0.0000   0.0000
   8.150   0.9940   0.00000  -0.00031  -0.0195   0.0000   0.0000
   8.200   1.0000   0.00000  -0.00031  -0.0196   0.0000   0.0000
   8.250   1.0061   0.00000  -0.00031  -0.0197   0.0000   0.0000
   8.300   1.0121   0.00000  -0.00031  -0.0199   0.0000   0.0000
   8.350   1.0182   0.00000  -0.00031  -0.0200   0.0000   0.0000
   8.400   1.0242   0.00000  -0.00031  -0.0201   0.0000   0.0000
   8.450   1.0303   0.00000  -0.00031  -0.0202   0.0000   0.0000
   8.500   1.0363   0.00000  -0.00031  -0.0203   0.0000   0.0000
   8.550   1.0424   0.00000  -0.00031  -0.0204   0.0000   0.0000
   8.600   1.0484   0.00000  -0.00031  -0.0206   0.0000   0.0000
   8.650   1.0545   0.00000  -0.00031  -0.0207   0.0000   0.0000
   8.700   1.0605   0.00000  -0.00031  -0.0208   0.0000   0.0000
   8.750   1.0666   0.00000  -0.00031  -0.0209   0.0000   0.0000
   8.800   1.0726   0.00000  -0.00031  -0.0210   0.0000   0.0000
   8.850   1.0787   0.00000  -0.00031  -0.0211   0.0000   0.0000
   8.900   1.0847   0.00000  -0.00031  -0.0212   0.0000   0.0000
   8.950   1.0908   0.00000  -0.00031  -0.0214   0.0000   0.0000
   9.000   1.0968   0.00000  -0.00031  -0.0215   0.0000   0.0000
   9.050   1.1028   0.00000  -0.00032  -0.0216   0.0000   0.0000
   9.100   1.1089   0.00000  -0.00032  -0.0217   0.0000   0.0000
   9.150   1.1149   0.00000  -0.00032  -0.0218   0.0000   0.0000
   9.200   1.1210   0.00000  -0.00032  -0.0219   0.0000   0.0000
   9.250   1.1270   0.00000  -0.00032  -0.0221   0.0000   0.0000
   9.300   1.1330   0.00000  -0.00032  -0.0222   0.0000   0.0000
   9.350   1.1391   0.00000  -0.00032  -0.0223   0.0000   0.0000
   9.400   1.1451   0.00000  -0.00032  -0.0224   0.0000   0.0000
   9.450   1.1512   0.00000  -0.00032  -0.0225   0.0000   0.0000
   9.500   1.1572   0.00000  -0.00032  -0.0226   0.0000   0.0000
   9.550   1.1632   0.00000  -0.00032  -0.0227   0.0000   0.0000
   9.600   1.1693   0.00000  -0.00032  -0.0229   0.0000   0.0000
   9.650   1.1753   0.00000  -0.00032  -0.0230   0.0000   0.0000
   9.700   1.1813   0.00000  -0.00032  -0.0231   0.0000   0.0000
   9.750   1.1874   0.00000  -0.00032  -0.0232   0.0000   0.0000
   9.800   1.1934   0.00000  -0.00032  -0.0233   0.0000   0.0000
   9.850   1.1994   0.00000  -0.00032  -0.0234   0.0000   0.0000
   9.900   1.2054   0.00000  -0.00032  -0.0235   0.0000   0.0000
   9.950   1.2115   0.00000  -0.00032  -0.0237   0.0000   0.0000
  10.000   1.2175   0.00000  -0.00032  -0.0238   0.0000   0.0000
  10.050   1.2235   0.00000  -0.00032  -0.0239   0.0000   0.0000
  10.100   1.2295   0.00000  -0.00032  -0.0240   0.0000   0.0000
  10.150   1.2356   0.00000  -0.00032  -0.0241   0.0000   0.0000
  10.200   1.2416   0.00000  -0.00032  -0.0242   0.0000   0.0000
  10.250   1.2476   0.00000  -0.00032  -0.0243   0.0000   0.0000
  10.300   1.2536   0.00000  -0.00032  -0.0245   0.0000   0.0000
  10.350   1.2597   0.00000  -0.00032  -0.0246   0.0000   0.0000
  10.400   1.2657   0.00000  -0.00032  -0.0247   0.0000   0.0000
  10.450   1.2717   0.00000  -0.00032  -0.0248   0.0000   0.0000
  10.500   1.2777   0.00000  -0.00032  -0.0249   0.0000   0.0000
  10.550   1.2837   0.00000  -0.00032  -0.0250   0.0000   0.0000
  10.600   1.2897   0.00000  -0.00032  -0.0251   0.0000   0.0000
  10.650   1.2958   0.00000  -0.00032  -0.0252   0.0000   0.0000
  10.700   1.3018   0.00000  -0.00032  -0.0254   0.0000   0.0000
  10.750   1.3078   0.00000  -0.00032  -0.0255   0.0000   0.0000
  10.800   1.3138   0.00000  -0.00032  -0.0256   0.0000   0.0000
  10.850   1.3198   0.00000  -0.00032  -0.0257   0.0000   0.0000
  10.900   1.3258   0.00000  -0.00032  -0.0258   0.0000   0.0000
  10.950   1.3318   0.00000  -0.00032  -0.0259   0.0000   0.0000
  11.000   1.3378   0.00000  -0.00032  -0.0260   0.0000   0.0000
  11.050   1.3438   0.00000  -0.00032  -0.0261   0.0000   0.0000
  11.100   1.3498   0.00000  -0.00032  -0.0263   0.0000   0.0000
  11.150   1.3558   0.00000  -0.00032  -0.0264   0.0000   0.0000
  11.200   1.3618   0.00000  -0.00033  -0.0265   0.0000   0.0000
  11.250   1.3678   0.00000  -0.00033  -0.0266   0.0000   0.0000
  11.300   1.3738   0.00000  -0.00033  -0.0267   0.0000   0.0000
  11.350   1.3798   0.00000  -0.00033  -0.0268   0.0000   0.0000
  11.400   1.3858   0.00000  -0.00033  -0.0269   0.0000   0.0000
  11.450   1.3918   0.00000  -0.00033  -0.0270   0.0000   0.0000
  11.500   1.3978   0.00000  -0.00033  -0.0272   0.0000   0.0000
  11.550   1.4038   0.00000  -0.00033  -0.0273   0.0000   0.0000
  11.600   1.4098   0.00000  -0.00033  -0.0274   0.0000   0.0000
  11.650   1.4158   0.00000  -0.00033  -0.0275   0.0000   0.0000
  11.700   1.4218   0.00000  -0.00033  -0.0276   0.0000   0.0000
  11.750   1.4278   0.00000  -0.00033  -0.0277   0.0000   0.0000
  11.800   1.4338   0.00000  -0.00033  -0.0278   0.0000   0.0000
  11.850   1.4398   0.00000  -0.00033  -0.0279   0.0000   0.0000
  11.900   1.4458   0.00000  -0.00033  -0.0280   0.0000   0.0000
  11.950   1.4518   0.00000  -0.00033  -0.0282   0.0000   0.0000
  12.000   1.4577   0.00000  -0.00033  -0.0283   0.0000   0.0000
  12.050   1.4637   0.00000  -0.00033  -0.0284   0.0000   0.0000
  12.100   1.4697   0.00000  -0.00033  -0.0285   0.0000   0.0000
  12.150   1.4757   0.00000  -0.00033  -0.0286   0.0000   0.0000
  12.200   1.4817   0.00000  -0.00033  -0.0287   0.0000   0.0000
  12.250   1.4876   0.00000  -0.00033  -0.0288   0.0000   0.0000
  12.300   1.4936   0.00000  -0.00033  -0.0289   0.0000   0.0000
  12.350   1.4996   0.00000  -0.00033  -0.0290   0.0000   0.0000
  12.400   1.5056   0.00000  -0.00033  -0.0292   0.0000   0.0000
  12.450   1.5116   0.00000  -0.00033  -0.0293   0.0000   0.0000
  12.500   1.5175   0.00000  -0.00033  -0.0294   0.0000   0.0000
  12.550   1.5235   0.00000  -0.00033  -0.0295   0.0000   0.0000
  12.600   1.5295   0.00000  -0.00033  -0.0296   0.0000   0.0000
  12.650   1.5354   0.00000  -0.00033  -0.0297   0.0000   0.0000
  12.700   1.5414   0.00000  -0.00033  -0.0298   0.0000   0.0000
  12.750   1.5474   0.00000  -0.00033  -0.0299   0.0000   0.0000
  12.800   1.5534   0.00000  -0.00033  -0.0300   0.0000   0.0000
  12.850   1.5593   0.00000  -0.00033  -0.0301   0.0000   0.0000
  12.900   1.5653   0.00000  -0.00033  -0.0303   0.0000   0.0000
  12.950   1.5713   0.00000  -0.00033  -0.0304   0.0000   0.0000
  13.000   1.5772   0.00000  -0.00033  -0.0305   0.0000   0.0000
  13.050   1.5832   0.00000  -0.00033  -0.0306   0.0000   0.0000
  13.100   1.5891   0.00000  -0.00034  -0.0307   0.0000   0.0000
  13.150   1.5951   0.00000  -0.00034  -0.0308   0.0000   0.0000
  13.200   1.6011   0.00000  -0.00034  -0.0309   0.0000   0.0000
  13.250   1.6070   0.00000  -0.00034  -0.0310   0.0000   0.0000
  13.300   1.6130   0.00000  -0.00034  -0.0311   0.0000   0.0000
  13.350   1.6189   0.00000  -0.00034  -0.0312   0.0000   0.0000
  13.400   1.6249   0.00000  -0.00034  -0.0313   0.0000   0.0000
  13.450   1.6308   0.00000  -0.00034  -0.0314   0.0000   0.0000
  13.500   1.6368   0.00000  -0.00034  -0.0316   0.0000   0.0000
  13.550   1.6427   0.00000  -0.00034  -0.0317   0.0000   0.0000
  13.600   1.6487   0.00000  -0.00034  -0.0318   0.0000   0.0000
  13.650   1.6546   0.00000  -0.00034  -0.0319   0.0000   0.0000
  13.700   1.6606   0.00000  -0.00034  -0.0320   0.0000   0.0000
  13.750   1.6665   0.00000  -0.00034  -0.0321   0.0000   0.0000
  13.800   1.6724   0.00000  -0.00034  -0.0322   0.0000   0.0000
  13.850   1.6784   0.00000  -0.00034  -0.0323   0.0000   0.0000
  13.900   1.6843   0.00000  -0.00034  -0.0324   0.0000   0.0000
  13.950   1.6903   0.00000  -0.00034  -0.0325   0.0000   0.0000
  14.000   1.6962   0.00000  -0.00034  -0.0326   0.0000   0.0000
  14.050   1.7021   0.00000  -0.00034  -0.0327   0.0000   0.0000
  14.100   1.7081   0.00000  -0.00034  -0.0328   0.0000   0.0000
  14.150   1.7140   0.00000  -0.00034  -0.0330   0.0000   0.0000
  14.200   1.7199   0.00000  -0.00034  -0.0331   0.0000   0.0000
  14.250   1.7259   0.00000  -0.00034  -0.0332   0.0000   0.0000
  14.300   1.7318   0.00000  -0.00034  -0.0333   0.0000   0.0000
  14.350   1.7377   0.00000  -0.00034  -0.0334   0.0000   0.0000
  14.400   1.7437   0.00000  -0.00034  -0.0335   0.0000   0.0000
  14.450   1.7496   0.00000  -0.00034  -0.0336   0.0000   0.0000
  14.500   1.7555   0.00000  -0.00034  -0.0337   0.0000   0.0000
  14.550   1.7614   0.00000  -0.00034  -0.0338   0.0000   0.0000
  14.600   1.7674   0.00000  -0.00034  -0.0339   0.0000   0.0000
  14.650   1.7733   0.00000  -0.00034  -0.0340   0.0000   0.0000
  14.700   1.7792   0.00000  -0.00034  -0.0341   0.0000   0.0000
  14.750   1.7851   0.00000  -0.00034  -0.0342   0.0000   0.0000
  14.800   1.7910   0.00000  -0.00034  -0.0343   0.0000   0.0000
  14.850   1.7969   0.00000  -0.00035  -0.0344   0.0000   0.0000
  14.900   1.8029   0.00000  -0.00035  -0.0345   0.0000   0.0000
  14.950   1.8088   0.00000  -0.00035  -0.0346   0.0000   0.0000
  15.000   1.8147   0.00000  -0.00035  -0.0348   0.0000   0.0000
  15.050   1.8206   0.00000  -0.00035  -0.0349   0.0000   0.0000
  15.100   1.8265   0.00000  -0.00035  -0.0350   0.0000   0.0000
  15.150   1.8324   0.00000  -0.00035  -0.0351   0.0000   0.0000
  15.200   1.8383   0.00000  -0.00035  -0.0352   0.0000   0.0000
  15.250   1.8442   0.00000  -0.00035  -0.0353   0.0000   0.0000
  15.300   1.8501   0.00000  -0.00035  -0.0354   0.0000   0.0000
  15.350   1.8560   0.00000  -0.00035  -0.0355   0.0000   0.0000
  15.400   1.8619   0.00000  -0.00035  -0.0356   0.0000   0.0000
  15.450   1.8678   0.00000  -0.00035  -0.0357   0.0000   0.0000
  15.500   1.8737   0.00000  -0.00035  -0.0358   0.0000   0.0000
  15.550   1.8796   0.00000  -0.00035  -0.0359   0.0000   0.0000
  15.600   1.8855   0.00000  -0.00035  -0.0360   0.0000   0.0000
  15.650   1.8914   0.00000  -0.00035  -0.0361   0.0000   0.0000
  15.700   1.8973   0.00000  -0.00035  -0.0362   0.0000   0.0000
  15.750   1.9032   0.00000  -0.00035  -0.0363   0.0000   0.0000
  15.800   1.9091   0.00000  -0.00035  -0.0364   0.0000   0.0000
  15.850   1.9150   0.00000  -0.00035  -0.0365   0.0000   0.0000
  15.900   1.9208   0.00000  -0.00035  -0.0366   0.0000   0.0000
  15.950   1.9267   0.00000  -0.00035  -0.0367   0.0000   0.0000
  16.000   1.9326   0.00000  -0.00035  -0.0368   0.0000   0.0000
  16.050   1.9385   0.00000  -0.00035  -0.0369   0.0000   0.0000
  16.100   1.9444   0.00000  -0.00035  -0.0370   0.0000   0.0000
  16.150   1.9502   0.00000  -0.00035  -0.0371   0.0000   0.0000
  16.200   1.9561   0.00000  -0.00035  -0.0372   0.0000   0.0000
  16.250   1.9620   0.00000  -0.00035  -0.0373   0.0000   0.0000
  16.300   1.9679   0.00000  -0.00035  -0.0375   0.0000   0.0000
  16.350   1.9737   0.00000  -0.00035  -0.0376   0.0000   0.0000
  16.400   1.9796   0.00000  -0.00036  -0.0377   0.0000   0.0000
  16.450   1.9855   0.00000  -0.00036  -0.0378   0.0000   0.0000
  16.500   1.9913   0.00000  -0.00036  -0.0379   0.0000   0.0000
  16.550   1.9972   0.00000  -0.00036  -0.0380   0.0000   0.0000
  16.600   2.0031   0.00000  -0.00036  -0.0381   0.0000   0.0000
  16.650   2.0089   0.00000  -0.00036  -0.0382   0.0000   0.0000
  16.700   2.0148   0.00000  -0.00036  -0.0383   0.0000   0.0000
  16.750   2.0207   0.00000  -0.00036  -0.0384   0.0000   0.0000
  16.800   2.0265   0.00000  -0.00036  -0.0385   0.0000   0.0000
  16.850   2.0324   0.00000  -0.00036  -0.0386   0.0000   0.0000
  16.900   2.0382   0.00000  -0.00036  -0.0387   0.0000   0.0000
  16.950   2.0441   0.00000  -0.00036  -0.0388   0.0000   0.0000
  17.000   2.0499   0.00000  -0.00036  -0.0389   0.0000   0.0000
  17.050   2.0558   0.00000  -0.00036  -0.0390   0.0000   0.0000
  17.100   2.0616   0.00000  -0.00036  -0.0391   0.0000   0.0000
  17.150   2.0675   0.00000  -0.00036  -0.0392   0.0000   0.0000
  17.200   2.0733   0.00000  -0.00036  -0.0393   0.0000   0.0000
  17.250   2.0792   0.00000  -0.00036  -0.0394   0.0000   0.0000
  17.300   2.0850   0.00000  -0.00036  -0.0395   0.0000   0.0000
  17.350   2.0909   0.00000  -0.00036  -0.0396   0.0000   0.0000
  17.400   2.0967   0.00000  -0.00036  -0.0397   0.0000   0.0000
  17.450   2.1025   0.00000  -0.00036  -0.0398   0.0000   0.0000
  17.500   2.1084   0.00000  -0.00036  -0.0399   0.0000   0.0000
  17.550   2.1142   0.00000  -0.00036  -0.0400   0.0000   0.0000
  17.600   2.1200   0.00000  -0.00036  -0.0401   0.0000   0.0000
  17.650   2.1259   0.00000  -0.00036  -0.0402   0.0000   0.0000
  17.700   2.1317   0.00000  -0.00036  -0.0403   0.0000   0.0000
  17.750   2.1375   0.00000  -0.00036  -0.0404   0.0000   0.0000
  17.800   2.1434   0.00000  -0.00036  -0.0405   0.0000   0.0000
  17.850   2.1492   0.00000  -0.00036  -0.0406   0.0000   0.0000
  17.900   2.1550   0.00000  -0.00036  -0.0407   0.0000   0.0000
  17.950   2.1608   0.00000  -0.00037  -0.0408   0.0000   0.0000
  18.000   2.1667   0.00000  -0.00037  -0.0409   0.0000   0.0000
  18.050   2.1725   0.00000  -0.00037  -0.0410   0.0000   0.0000
  18.100   2.1783   0.00000  -0.00037  -0.0411   0.0000   0.0000
  18.150   2.1841   0.00000  -0.00037  -0.0412   0.0000   0.0000
  18.200   2.1899   0.00000  -0.00037  -0.0412   0.0000   0.0000
  18.250   2.1957   0.00000  -0.00037  -0.0413   0.0000   0.0000
  18.300   2.2015   0.00000  -0.00037  -0.0414   0.0000   0.0000
  18.350   2.2073   0.00000  -0.00037  -0.0415   0.0000   0.0000
  18.400   2.2132   0.00000  -0.00037  -0.0416   0.0000   0.0000
  18.450   2.2190   0.00000  -0.00037  -0.0417   0.0000   0.0000
  18.500   2.2248   0.00000  -0.00037  -0.0418   0.0000   0.0000
  18.550   2.2306   0.00000  -0.00037  -0.0419   0.0000   0.0000
  18.600   2.2364   0.00000  -0.00037  -0.0420   0.0000   0.0000
  18.650   2.2422   0.00000  -0.00037  -0.0421   0.0000   0.0000
  18.700   2.2480   0.00000  -0.00037  -0.0422   0.0000   0.0000
  18.750   2.2538   0.00000  -0.00037  -0.0423   0.0000   0.0000
  18.800   2.2595   0.00000  -0.00037  -0.0424   0.0000   0.0000
  18.850   2.2653   0.00000  -0.00037  -0.0425   0.0000   0.0000
  18.900   2.2711   0.00000  -0.00037  -0.0426   0.0000   0.0000
  18.950   2.2769   0.00000  -0.00037  -0.0427   0.0000   0.0000
  19.000   2.2827   0.00000  -0.00037  -0.0428   0.0000   0.0000
  19.050   2.2885   0.00000  -0.00037  -0.0429   0.0000   0.0000
  19.100   2.2943   0.00000  -0.00037  -0.0430   0.0000   0.0000
  19.150   2.3001   0.00000  -0.00037  -0.0431   0.0000   0.0000
  19.200   2.3058   0.00000  -0.00037  -0.0432   0.0000   0.0000
  19.250   2.3116   0.00000  -0.00037  -0.0433   0.0000   0.0000
  19.300   2.3174   0.00000  -0.00037  -0.0434   0.0000   0.0000
  19.350   2.3232   0.00000  -0.00038  -0.0435   0.0000   0.0000
  19.400   2.3289   0.00000  -0.00038  -0.0436   0.0000   0.0000
  19.450   2.3347   0.00000  -0.00038  -0.0437   0.0000   0.0000
  19.500   2.3405   0.00000  -0.00038  -0.0437   0.0000   0.0000
  19.550   2.3462   0.00000  -0.00038  -0.0438   0.0000   0.0000
  19.600   2.3520   0.00000  -0.00038  -0.0439   0.0000   0.0000
  19.650   2.3578   0.00000  -0.00038  -0.0440   0.0000   0.0000
  19.700   2.3635   0.00000  -0.00038  -0.0441   0.0000   0.0000
  19.750   2.3693   0.00000  -0.00038  -0.0442   0.0000   0.0000
  19.800   2.3750   0.00000  -0.00038  -0.0443   0.0000   0.0000
  19.850   2.3808   0.00000  -0.00038  -0.0444   0.0000   0.0000
  19.900   2.3866   0.00000  -0.00038  -0.0445   0.0000   0.0000
  19.950   2.3923   0.00000  -0.00038  -0.0446   0.0000   0.0000
  20.000   2.3981   0.00000  -0.00038  -0.0447   0.0000   0.0000
