  
       XFOIL         Version 6.99
  
 Calculated polar for: NACA 642-015A AIRFOIL                           
  
 1 1 Reynolds number fixed          Mach number fixed         
  
 xtrf =   1.000 (top)        1.000 (bottom)  
 Mach =   0.000     Re =     0.800 e 6     Ncrit =   9.000
  
   alpha    CL        CD       CDp       CM     Top_Xtr  Bot_Xtr
  ------ -------- --------- --------- -------- -------- --------
  -4.850  -0.5064   0.00872   0.00294  -0.0041   0.7946   0.2303
  -4.800  -0.5021   0.00860   0.00288  -0.0039   0.7933   0.2435
  -4.750  -0.4976   0.00851   0.00282  -0.0038   0.7920   0.2562
  -4.700  -0.4941   0.00832   0.00273  -0.0035   0.7906   0.2754
  -4.650  -0.4900   0.00819   0.00266  -0.0033   0.7892   0.2899
  -4.600  -0.4854   0.00811   0.00261  -0.0032   0.7877   0.3020
  -4.550  -0.4819   0.00793   0.00253  -0.0029   0.7861   0.3226
  -4.500  -0.4781   0.00779   0.00246  -0.0027   0.7845   0.3400
  -4.450  -0.4738   0.00769   0.00241  -0.0025   0.7828   0.3560
  -4.400  -0.4708   0.00750   0.00234  -0.0021   0.7811   0.3800
  -4.350  -0.4665   0.00740   0.00230  -0.0019   0.7793   0.3952
  -4.300  -0.4627   0.00729   0.00226  -0.0017   0.7775   0.4129
  -4.250  -0.4589   0.00718   0.00222  -0.0014   0.7757   0.4306
  -4.200  -0.4541   0.00713   0.00219  -0.0013   0.7738   0.4405
  -4.150  -0.4489   0.00711   0.00217  -0.0012   0.7719   0.4457
  -4.100  -0.4436   0.00710   0.00215  -0.0012   0.7699   0.4493
  -4.050  -0.4387   0.00707   0.00212  -0.0011   0.7678   0.4561
  -4.000  -0.4342   0.00701   0.00210  -0.0009   0.7655   0.4644
  -3.950  -0.4295   0.00697   0.00208  -0.0008   0.7631   0.4719
  -3.900  -0.4246   0.00694   0.00207  -0.0006   0.7606   0.4783
  -3.850  -0.4195   0.00692   0.00205  -0.0006   0.7580   0.4836
  -3.800  -0.4142   0.00691   0.00204  -0.0006   0.7554   0.4881
  -3.750  -0.4087   0.00691   0.00203  -0.0006   0.7529   0.4914
  -3.700  -0.4032   0.00691   0.00202  -0.0006   0.7504   0.4940
  -3.650  -0.3976   0.00689   0.00200  -0.0006   0.7496   0.4961
  -3.600  -0.3920   0.00688   0.00199  -0.0006   0.7491   0.4977
  -3.550  -0.3864   0.00687   0.00198  -0.0007   0.7486   0.4990
  -3.500  -0.3807   0.00687   0.00196  -0.0007   0.7480   0.5001
  -3.450  -0.3755   0.00683   0.00195  -0.0007   0.7473   0.5048
  -3.400  -0.3704   0.00680   0.00193  -0.0006   0.7466   0.5100
  -3.350  -0.3653   0.00676   0.00192  -0.0005   0.7458   0.5153
  -3.300  -0.3603   0.00673   0.00191  -0.0004   0.7449   0.5201
  -3.250  -0.3552   0.00669   0.00190  -0.0004   0.7440   0.5250
  -3.200  -0.3501   0.00666   0.00190  -0.0003   0.7430   0.5307
  -3.150  -0.3449   0.00664   0.00189  -0.0002   0.7420   0.5355
  -3.100  -0.3395   0.00663   0.00189  -0.0002   0.7409   0.5398
  -3.050  -0.3341   0.00662   0.00188  -0.0002   0.7397   0.5433
  -3.000  -0.3285   0.00662   0.00188  -0.0002   0.7384   0.5460
  -2.950  -0.3229   0.00663   0.00187  -0.0002   0.7371   0.5479
  -2.900  -0.3173   0.00663   0.00187  -0.0002   0.7357   0.5492
  -2.850  -0.3118   0.00664   0.00186  -0.0002   0.7343   0.5510
  -2.800  -0.3066   0.00660   0.00184  -0.0002   0.7329   0.5565
  -2.750  -0.3015   0.00657   0.00183  -0.0001   0.7314   0.5614
  -2.700  -0.2965   0.00655   0.00182  -0.0000   0.7299   0.5659
  -2.650  -0.2913   0.00653   0.00182   0.0001   0.7283   0.5694
  -2.600  -0.2861   0.00652   0.00181   0.0001   0.7267   0.5723
  -2.550  -0.2809   0.00651   0.00181   0.0002   0.7251   0.5751
  -2.500  -0.2756   0.00650   0.00180   0.0002   0.7234   0.5775
  -2.450  -0.2704   0.00649   0.00180   0.0003   0.7216   0.5804
  -2.400  -0.2652   0.00649   0.00179   0.0003   0.7198   0.5833
  -2.350  -0.2599   0.00649   0.00179   0.0004   0.7178   0.5862
  -2.300  -0.2546   0.00650   0.00179   0.0005   0.7157   0.5890
  -2.250  -0.2492   0.00651   0.00180   0.0005   0.7135   0.5916
  -2.200  -0.2438   0.00653   0.00180   0.0005   0.7112   0.5936
  -2.150  -0.2384   0.00655   0.00180   0.0005   0.7088   0.5953
  -2.100  -0.2329   0.00657   0.00181   0.0005   0.7064   0.5967
  -2.050  -0.2273   0.00659   0.00181   0.0005   0.7039   0.5978
  -2.000  -0.2217   0.00661   0.00182   0.0005   0.7014   0.5986
  -1.950  -0.2161   0.00663   0.00182   0.0005   0.6998   0.5992
  -1.900  -0.2105   0.00663   0.00182   0.0005   0.6994   0.5997
  -1.850  -0.2048   0.00662   0.00182   0.0004   0.6990   0.6010
  -1.800  -0.1992   0.00659   0.00180   0.0004   0.6985   0.6041
  -1.750  -0.1937   0.00656   0.00178   0.0004   0.6980   0.6074
  -1.700  -0.1882   0.00654   0.00177   0.0004   0.6973   0.6106
  -1.650  -0.1828   0.00651   0.00176   0.0004   0.6967   0.6137
  -1.600  -0.1774   0.00649   0.00176   0.0004   0.6960   0.6165
  -1.550  -0.1720   0.00647   0.00176   0.0004   0.6952   0.6189
  -1.500  -0.1666   0.00646   0.00176   0.0004   0.6944   0.6211
  -1.450  -0.1612   0.00645   0.00175   0.0004   0.6936   0.6229
  -1.400  -0.1557   0.00643   0.00175   0.0004   0.6926   0.6246
  -1.350  -0.1502   0.00642   0.00175   0.0004   0.6917   0.6260
  -1.300  -0.1446   0.00642   0.00175   0.0004   0.6906   0.6273
  -1.250  -0.1391   0.00641   0.00174   0.0004   0.6895   0.6285
  -1.200  -0.1335   0.00640   0.00174   0.0004   0.6884   0.6297
  -1.150  -0.1279   0.00640   0.00173   0.0004   0.6872   0.6308
  -1.100  -0.1224   0.00639   0.00173   0.0004   0.6859   0.6320
  -1.050  -0.1168   0.00639   0.00173   0.0004   0.6847   0.6331
  -1.000  -0.1112   0.00639   0.00172   0.0003   0.6834   0.6341
  -0.950  -0.1057   0.00639   0.00172   0.0003   0.6820   0.6352
  -0.900  -0.1001   0.00639   0.00171   0.0003   0.6807   0.6362
  -0.850  -0.0946   0.00639   0.00171   0.0003   0.6793   0.6373
  -0.800  -0.0890   0.00639   0.00171   0.0003   0.6779   0.6384
  -0.750  -0.0835   0.00639   0.00170   0.0003   0.6764   0.6394
  -0.700  -0.0779   0.00640   0.00170   0.0003   0.6750   0.6404
  -0.650  -0.0724   0.00640   0.00170   0.0003   0.6734   0.6414
  -0.600  -0.0669   0.00641   0.00169   0.0003   0.6718   0.6423
  -0.550  -0.0614   0.00642   0.00169   0.0003   0.6702   0.6432
  -0.500  -0.0559   0.00643   0.00169   0.0003   0.6684   0.6440
  -0.450  -0.0504   0.00644   0.00169   0.0003   0.6665   0.6448
  -0.400  -0.0449   0.00645   0.00169   0.0003   0.6645   0.6455
  -0.350  -0.0394   0.00647   0.00169   0.0003   0.6624   0.6462
  -0.300  -0.0339   0.00648   0.00169   0.0002   0.6602   0.6468
  -0.250  -0.0283   0.00650   0.00169   0.0002   0.6580   0.6474
  -0.200  -0.0227   0.00651   0.00170   0.0002   0.6557   0.6479
  -0.150  -0.0171   0.00653   0.00171   0.0001   0.6534   0.6484
  -0.100  -0.0114   0.00655   0.00172   0.0001   0.6512   0.6488
  -0.050  -0.0057   0.00657   0.00172   0.0000   0.6499   0.6492
   0.000  -0.0000   0.00656   0.00172   0.0000   0.6495   0.6495
   0.050   0.0057   0.00657   0.00172  -0.0000   0.6492   0.6499
   0.100   0.0114   0.00655   0.00172  -0.0001   0.6488   0.6512
   0.150   0.0171   0.00653   0.00171  -0.0001   0.6484   0.6534
   0.200   0.0227   0.00651   0.00170  -0.0002   0.6479   0.6557
   0.250   0.0283   0.00650   0.00169  -0.0002   0.6474   0.6580
   0.300   0.0339   0.00648   0.00169  -0.0002   0.6468   0.6603
   0.350   0.0394   0.00647   0.00169  -0.0003   0.6462   0.6624
   0.400   0.0449   0.00645   0.00169  -0.0003   0.6455   0.6645
   0.450   0.0504   0.00644   0.00169  -0.0003   0.6448   0.6665
   0.500   0.0559   0.00643   0.00169  -0.0003   0.6440   0.6684
   0.550   0.0614   0.00642   0.00169  -0.0003   0.6432   0.6702
   0.600   0.0669   0.00641   0.00169  -0.0003   0.6423   0.6719
   0.650   0.0724   0.00640   0.00170  -0.0003   0.6414   0.6734
   0.700   0.0779   0.00640   0.00170  -0.0003   0.6404   0.6750
   0.750   0.0835   0.00639   0.00170  -0.0003   0.6394   0.6765
   0.800   0.0890   0.00639   0.00171  -0.0003   0.6384   0.6779
   0.850   0.0946   0.00639   0.00171  -0.0003   0.6373   0.6793
   0.900   0.1001   0.00639   0.00171  -0.0003   0.6363   0.6807
   0.950   0.1057   0.00639   0.00172  -0.0003   0.6352   0.6820
   1.000   0.1112   0.00639   0.00172  -0.0003   0.6341   0.6834
   1.050   0.1168   0.00639   0.00173  -0.0004   0.6331   0.6847
   1.100   0.1224   0.00639   0.00173  -0.0004   0.6320   0.6859
   1.150   0.1279   0.00640   0.00173  -0.0004   0.6309   0.6872
   1.200   0.1335   0.00640   0.00174  -0.0004   0.6297   0.6884
   1.250   0.1391   0.00641   0.00174  -0.0004   0.6286   0.6896
   1.300   0.1446   0.00642   0.00175  -0.0004   0.6274   0.6907
   1.350   0.1502   0.00642   0.00175  -0.0004   0.6260   0.6917
   1.400   0.1557   0.00643   0.00175  -0.0004   0.6246   0.6926
   1.450   0.1612   0.00645   0.00175  -0.0004   0.6229   0.6936
   1.500   0.1666   0.00646   0.00176  -0.0004   0.6211   0.6944
   1.550   0.1720   0.00647   0.00176  -0.0004   0.6189   0.6952
   1.600   0.1774   0.00649   0.00176  -0.0004   0.6165   0.6960
   1.650   0.1828   0.00651   0.00176  -0.0004   0.6137   0.6967
   1.700   0.1882   0.00654   0.00177  -0.0004   0.6106   0.6974
   1.750   0.1937   0.00656   0.00178  -0.0004   0.6074   0.6980
   1.800   0.1992   0.00659   0.00180  -0.0004   0.6041   0.6985
   1.850   0.2048   0.00662   0.00182  -0.0004   0.6010   0.6990
   1.900   0.2105   0.00663   0.00182  -0.0005   0.5997   0.6994
   1.950   0.2161   0.00663   0.00182  -0.0005   0.5992   0.6999
   2.000   0.2217   0.00661   0.00182  -0.0005   0.5986   0.7014
   2.050   0.2273   0.00659   0.00181  -0.0005   0.5977   0.7039
   2.100   0.2329   0.00657   0.00181  -0.0005   0.5967   0.7064
   2.150   0.2384   0.00655   0.00180  -0.0005   0.5953   0.7088
   2.200   0.2438   0.00653   0.00180  -0.0005   0.5936   0.7112
   2.250   0.2492   0.00651   0.00179  -0.0005   0.5915   0.7136
   2.300   0.2546   0.00650   0.00179  -0.0005   0.5890   0.7157
   2.350   0.2599   0.00649   0.00179  -0.0004   0.5862   0.7178
   2.400   0.2651   0.00649   0.00179  -0.0003   0.5832   0.7198
   2.450   0.2704   0.00649   0.00180  -0.0003   0.5803   0.7216
   2.500   0.2756   0.00650   0.00180  -0.0002   0.5776   0.7234
   2.550   0.2809   0.00651   0.00181  -0.0002   0.5748   0.7251
   2.600   0.2861   0.00652   0.00181  -0.0001   0.5723   0.7267
   2.650   0.2913   0.00653   0.00182  -0.0001   0.5691   0.7283
   2.700   0.2964   0.00655   0.00182   0.0000   0.5656   0.7299
   2.750   0.3015   0.00658   0.00183   0.0001   0.5611   0.7314
   2.800   0.3066   0.00660   0.00184   0.0002   0.5559   0.7329
   2.850   0.3118   0.00664   0.00186   0.0002   0.5509   0.7343
   2.900   0.3173   0.00663   0.00186   0.0002   0.5491   0.7357
   2.950   0.3229   0.00662   0.00187   0.0002   0.5478   0.7371
   3.000   0.3285   0.00662   0.00187   0.0002   0.5458   0.7384
   3.050   0.3341   0.00662   0.00188   0.0002   0.5432   0.7397
   3.100   0.3395   0.00663   0.00189   0.0002   0.5397   0.7409
   3.150   0.3448   0.00664   0.00189   0.0002   0.5350   0.7420
   3.200   0.3500   0.00667   0.00189   0.0003   0.5299   0.7430
   3.250   0.3552   0.00670   0.00190   0.0004   0.5248   0.7440
   3.300   0.3603   0.00673   0.00191   0.0004   0.5200   0.7449
   3.350   0.3653   0.00677   0.00192   0.0005   0.5147   0.7458
   3.400   0.3703   0.00680   0.00193   0.0006   0.5096   0.7466
   3.450   0.3755   0.00684   0.00194   0.0007   0.5045   0.7473
   3.500   0.3807   0.00687   0.00196   0.0007   0.5000   0.7480
   3.550   0.3864   0.00687   0.00197   0.0007   0.4990   0.7486
   3.600   0.3920   0.00688   0.00199   0.0006   0.4976   0.7491
   3.650   0.3976   0.00689   0.00200   0.0006   0.4960   0.7496
   3.700   0.4032   0.00691   0.00202   0.0006   0.4938   0.7504
   3.750   0.4087   0.00691   0.00203   0.0006   0.4912   0.7529
   3.800   0.4142   0.00691   0.00204   0.0006   0.4878   0.7554
   3.850   0.4195   0.00692   0.00205   0.0006   0.4836   0.7580
   3.900   0.4246   0.00694   0.00207   0.0006   0.4784   0.7606
   3.950   0.4295   0.00697   0.00208   0.0008   0.4717   0.7631
   4.000   0.4341   0.00702   0.00210   0.0009   0.4642   0.7655
   4.050   0.4387   0.00707   0.00212   0.0011   0.4555   0.7678
   4.100   0.4436   0.00710   0.00215   0.0012   0.4491   0.7699
   4.150   0.4489   0.00711   0.00217   0.0012   0.4455   0.7720
   4.200   0.4541   0.00713   0.00219   0.0013   0.4401   0.7738
   4.250   0.4589   0.00718   0.00222   0.0014   0.4301   0.7757
   4.300   0.4626   0.00730   0.00226   0.0017   0.4119   0.7776
   4.350   0.4665   0.00740   0.00230   0.0019   0.3952   0.7794
   4.400   0.4707   0.00750   0.00234   0.0021   0.3791   0.7811
   4.450   0.4738   0.00769   0.00241   0.0025   0.3556   0.7828
   4.500   0.4780   0.00780   0.00246   0.0027   0.3393   0.7845
   4.550   0.4819   0.00794   0.00253   0.0029   0.3220   0.7861
   4.600   0.4854   0.00811   0.00262   0.0032   0.3010   0.7877
   4.650   0.4899   0.00820   0.00267   0.0033   0.2892   0.7892
   4.700   0.4940   0.00833   0.00273   0.0035   0.2745   0.7906
   4.750   0.4976   0.00851   0.00282   0.0038   0.2555   0.7920
   4.800   0.5022   0.00860   0.00288   0.0039   0.2434   0.7933
   4.850   0.5064   0.00873   0.00294   0.0041   0.2298   0.7946
   4.900   0.5097   0.00893   0.00304   0.0044   0.2101   0.7957
   4.950   0.5137   0.00908   0.00320   0.0046   0.1909   0.7968
   5.000   0.5179   0.00921   0.00327   0.0047   0.1789   0.7977
   5.050   0.5218   0.00937   0.00335   0.0049   0.1651   0.7986
   5.100   0.5263   0.00948   0.00342   0.0051   0.1505   0.7994
   5.200   0.5360   0.00961   0.00352   0.0052   0.1391   0.8037
   5.250   0.5405   0.00970   0.00358   0.0053   0.1320   0.8070
   5.300   0.5448   0.00980   0.00364   0.0055   0.1237   0.8105
   5.350   0.5489   0.00991   0.00372   0.0057   0.1142   0.8139
   5.400   0.5535   0.00998   0.00378   0.0058   0.1042   0.8170
   5.450   0.5583   0.01003   0.00383   0.0059   0.0983   0.8199
   5.500   0.5629   0.01009   0.00389   0.0060   0.0946   0.8226
   5.550   0.5674   0.01017   0.00395   0.0062   0.0904   0.8252
   5.600   0.5716   0.01028   0.00402   0.0063   0.0858   0.8277
   5.650   0.5759   0.01038   0.00409   0.0065   0.0808   0.8302
   5.700   0.5804   0.01046   0.00415   0.0067   0.0756   0.8325
   5.750   0.5854   0.01051   0.00420   0.0067   0.0733   0.8347
   5.800   0.5902   0.01057   0.00426   0.0068   0.0710   0.8369
   5.850   0.5950   0.01064   0.00432   0.0069   0.0682   0.8390
   5.900   0.5997   0.01071   0.00438   0.0070   0.0658   0.8409
   5.950   0.6043   0.01080   0.00445   0.0071   0.0625   0.8428
   6.000   0.6088   0.01089   0.00452   0.0072   0.0587   0.8445
   6.050   0.6135   0.01097   0.00458   0.0073   0.0541   0.8461
   6.100   0.6184   0.01103   0.00464   0.0074   0.0500   0.8475
   6.150   0.6235   0.01109   0.00469   0.0075   0.0488   0.8487
   6.200   0.6284   0.01115   0.00474   0.0075   0.0470   0.8498
   6.300   0.6377   0.01129   0.00488   0.0078   0.0410   0.8574
   6.350   0.6418   0.01140   0.00496   0.0080   0.0371   0.8615
   6.450   0.6497   0.01164   0.00521   0.0086   0.0245   0.8692
   6.500   0.6544   0.01169   0.00527   0.0087   0.0241   0.8725
   6.550   0.6591   0.01174   0.00534   0.0088   0.0236   0.8757
   6.600   0.6638   0.01179   0.00541   0.0090   0.0230   0.8789
   6.650   0.6685   0.01186   0.00549   0.0091   0.0225   0.8819
   6.700   0.6732   0.01192   0.00556   0.0092   0.0220   0.8850
   6.750   0.6779   0.01199   0.00564   0.0094   0.0215   0.8878
   6.800   0.6825   0.01206   0.00572   0.0095   0.0211   0.8907
   6.850   0.6872   0.01213   0.00580   0.0096   0.0208   0.8933
   6.900   0.6918   0.01220   0.00588   0.0098   0.0204   0.8957
   6.950   0.6964   0.01228   0.00596   0.0099   0.0202   0.8978
   7.000   0.7010   0.01235   0.00605   0.0100   0.0199   0.8997
   7.100   0.7106   0.01250   0.00623   0.0102   0.0195   0.9093
   7.150   0.7154   0.01258   0.00633   0.0104   0.0193   0.9139
   7.200   0.7202   0.01265   0.00643   0.0105   0.0191   0.9183
   7.250   0.7250   0.01274   0.00653   0.0106   0.0189   0.9224
   7.300   0.7299   0.01282   0.00663   0.0107   0.0188   0.9262
   7.350   0.7348   0.01291   0.00674   0.0107   0.0186   0.9300
   7.400   0.7397   0.01300   0.00684   0.0108   0.0185   0.9338
   7.450   0.7445   0.01309   0.00695   0.0109   0.0184   0.9374
   7.500   0.7492   0.01318   0.00705   0.0110   0.0183   0.9408
   7.550   0.7538   0.01327   0.00716   0.0112   0.0182   0.9440
   7.600   0.7582   0.01337   0.00727   0.0113   0.0181   0.9469
   7.650   0.7623   0.01348   0.00743   0.0116   0.0178   0.9496
   7.700   0.7685   0.01358   0.00753   0.0113   0.0175   0.9527
   7.750   0.7753   0.01369   0.00764   0.0109   0.0171   0.9558
   7.800   0.7821   0.01381   0.00776   0.0105   0.0168   0.9586
   7.850   0.7888   0.01393   0.00788   0.0102   0.0165   0.9614
   7.900   0.7955   0.01405   0.00802   0.0098   0.0163   0.9640
   7.950   0.8020   0.01418   0.00815   0.0095   0.0160   0.9666
   8.000   0.8085   0.01431   0.00829   0.0092   0.0158   0.9691
   8.050   0.8148   0.01444   0.00844   0.0089   0.0156   0.9717
   8.100   0.8210   0.01458   0.00859   0.0086   0.0154   0.9742
   8.150   0.8272   0.01472   0.00874   0.0083   0.0153   0.9767
   8.200   0.8333   0.01486   0.00890   0.0081   0.0152   0.9791
   8.250   0.8393   0.01501   0.00906   0.0078   0.0151   0.9815
   8.300   0.8452   0.01516   0.00922   0.0076   0.0150   0.9839
   8.350   0.8511   0.01531   0.00939   0.0074   0.0149   0.9861
   8.400   0.8570   0.01546   0.00955   0.0072   0.0148   0.9881
   8.450   0.8628   0.01561   0.00972   0.0070   0.0148   0.9900
   8.500   0.8685   0.01576   0.00989   0.0068   0.0148   0.9918
   8.550   0.8742   0.01592   0.01006   0.0066   0.0147   0.9934
   8.600   0.8798   0.01608   0.01024   0.0064   0.0147   0.9949
   8.650   0.8855   0.01624   0.01042   0.0063   0.0146   0.9962
   8.700   0.8910   0.01641   0.01060   0.0061   0.0146   0.9974
   8.750   0.8965   0.01658   0.01078   0.0060   0.0146   0.9984
   8.800   0.9020   0.01675   0.01097   0.0058   0.0145   0.9992
   8.850   0.9074   0.01693   0.01116   0.0057   0.0145   1.0000
   8.900   0.9083   0.01703   0.01128   0.0064   0.0145   1.0000
   8.950   0.9095   0.01715   0.01140   0.0072   0.0144   1.0000
   9.000   0.9107   0.01726   0.01153   0.0079   0.0144   1.0000
   9.050   0.9121   0.01738   0.01166   0.0086   0.0144   1.0000
   9.100   0.9137   0.01751   0.01179   0.0093   0.0144   1.0000
   9.150   0.9155   0.01764   0.01194   0.0099   0.0144   1.0000
   9.200   0.9173   0.01777   0.01208   0.0104   0.0143   1.0000
   9.250   0.9191   0.01791   0.01223   0.0111   0.0143   1.0000
   9.300   0.9208   0.01805   0.01238   0.0116   0.0143   1.0000
   9.350   0.9228   0.01819   0.01254   0.0122   0.0143   1.0000
   9.400   0.9248   0.01834   0.01269   0.0127   0.0143   1.0000
   9.450   0.9270   0.01849   0.01286   0.0132   0.0142   1.0000
   9.500   0.9293   0.01865   0.01303   0.0137   0.0142   1.0000
   9.550   0.9316   0.01881   0.01321   0.0142   0.0142   1.0000
   9.600   0.9341   0.01898   0.01339   0.0146   0.0142   1.0000
   9.650   0.9367   0.01915   0.01357   0.0150   0.0141   1.0000
   9.700   0.9393   0.01932   0.01376   0.0154   0.0141   1.0000
   9.750   0.9420   0.01950   0.01395   0.0157   0.0141   1.0000
   9.800   0.9447   0.01968   0.01415   0.0161   0.0141   1.0000
   9.850   0.9475   0.01987   0.01435   0.0164   0.0141   1.0000
   9.900   0.9503   0.02006   0.01456   0.0168   0.0140   1.0000
   9.950   0.9532   0.02025   0.01476   0.0171   0.0140   1.0000
  10.000   0.9560   0.02045   0.01498   0.0174   0.0140   1.0000
  10.050   0.9588   0.02065   0.01520   0.0177   0.0140   1.0000
  10.100   0.9615   0.02086   0.01542   0.0180   0.0139   1.0000
  10.150   0.9643   0.02107   0.01564   0.0184   0.0139   1.0000
  10.200   0.9671   0.02128   0.01588   0.0187   0.0139   1.0000
  10.250   0.9697   0.02151   0.01612   0.0190   0.0139   1.0000
  10.300   0.9725   0.02172   0.01635   0.0193   0.0139   1.0000
  10.350   0.9752   0.02196   0.01660   0.0196   0.0138   1.0000
  10.400   0.9780   0.02218   0.01684   0.0198   0.0138   1.0000
  10.450   0.9807   0.02242   0.01710   0.0201   0.0138   1.0000
  10.500   0.9835   0.02265   0.01735   0.0204   0.0138   1.0000
  10.550   0.9862   0.02289   0.01761   0.0207   0.0138   1.0000
  10.600   0.9889   0.02314   0.01787   0.0210   0.0137   1.0000
  10.650   0.9916   0.02339   0.01814   0.0212   0.0137   1.0000
  10.700   0.9943   0.02365   0.01842   0.0215   0.0137   1.0000
  10.750   0.9969   0.02390   0.01870   0.0218   0.0137   1.0000
  10.800   0.9996   0.02417   0.01898   0.0221   0.0136   1.0000
  10.850   1.0022   0.02443   0.01926   0.0223   0.0136   1.0000
  10.900   1.0047   0.02472   0.01958   0.0226   0.0136   1.0000
  10.950   1.0071   0.02500   0.01988   0.0229   0.0136   1.0000
  11.000   1.0095   0.02527   0.02017   0.0232   0.0136   1.0000
  11.050   1.0117   0.02556   0.02048   0.0235   0.0135   1.0000
  11.100   1.0138   0.02586   0.02081   0.0238   0.0135   1.0000
  11.150   1.0159   0.02615   0.02112   0.0241   0.0135   1.0000
  11.200   1.0178   0.02646   0.02145   0.0245   0.0135   1.0000
  11.250   1.0197   0.02678   0.02179   0.0248   0.0134   1.0000
  11.300   1.0256   0.02643   0.02148   0.0247   0.0137   1.0000
  11.350   1.0281   0.02664   0.02171   0.0249   0.0138   1.0000
  11.400   1.0305   0.02690   0.02198   0.0252   0.0138   1.0000
  11.450   1.0327   0.02716   0.02226   0.0255   0.0138   1.0000
  11.500   1.0350   0.02742   0.02254   0.0257   0.0138   1.0000
  11.550   1.0371   0.02771   0.02285   0.0260   0.0138   1.0000
  11.600   1.0392   0.02800   0.02317   0.0263   0.0138   1.0000
  11.650   1.0411   0.02831   0.02350   0.0265   0.0138   1.0000
  11.700   1.0430   0.02863   0.02384   0.0268   0.0137   1.0000
  11.750   1.0449   0.02895   0.02418   0.0271   0.0137   1.0000
  11.800   1.0468   0.02927   0.02453   0.0274   0.0137   1.0000
  11.850   1.0484   0.02962   0.02490   0.0276   0.0137   1.0000
  11.900   1.0499   0.02997   0.02528   0.0279   0.0137   1.0000
  11.950   1.0513   0.03033   0.02567   0.0282   0.0137   1.0000
  12.000   1.0527   0.03069   0.02605   0.0285   0.0136   1.0000
  12.050   1.0538   0.03108   0.02647   0.0287   0.0136   1.0000
  12.100   1.0550   0.03146   0.02688   0.0290   0.0136   1.0000
  12.150   1.0561   0.03186   0.02731   0.0293   0.0136   1.0000
  12.200   1.0571   0.03228   0.02775   0.0295   0.0135   1.0000
  12.250   1.0579   0.03271   0.02821   0.0298   0.0135   1.0000
  12.300   1.0590   0.03311   0.02864   0.0301   0.0135   1.0000
  12.350   1.0597   0.03356   0.02912   0.0303   0.0135   1.0000
  12.400   1.0605   0.03398   0.02957   0.0306   0.0135   1.0000
  12.450   1.0609   0.03446   0.03008   0.0309   0.0134   1.0000
  12.500   1.0612   0.03493   0.03058   0.0311   0.0134   1.0000
  12.550   1.0613   0.03542   0.03110   0.0314   0.0134   1.0000
  12.600   1.0614   0.03588   0.03159   0.0317   0.0134   1.0000
  12.650   1.0610   0.03639   0.03213   0.0319   0.0134   1.0000
  12.700   1.0607   0.03690   0.03267   0.0322   0.0133   1.0000
  12.750   1.0600   0.03746   0.03327   0.0325   0.0133   1.0000
  12.800   1.0599   0.03795   0.03378   0.0327   0.0133   1.0000
  12.850   1.0592   0.03851   0.03438   0.0330   0.0133   1.0000
  12.900   1.0586   0.03907   0.03497   0.0332   0.0133   1.0000
  12.950   1.0576   0.03969   0.03562   0.0334   0.0132   1.0000
  13.000   1.0569   0.04025   0.03622   0.0336   0.0132   1.0000
  13.050   1.0556   0.04088   0.03689   0.0338   0.0132   1.0000
  13.100   1.0540   0.04154   0.03758   0.0340   0.0132   1.0000
  13.150   1.0529   0.04215   0.03823   0.0342   0.0132   1.0000
  13.200   1.0510   0.04287   0.03898   0.0343   0.0131   1.0000
  13.250   1.0496   0.04354   0.03968   0.0345   0.0131   1.0000
  13.300   1.0486   0.04416   0.04034   0.0346   0.0131   1.0000
  13.350   1.0464   0.04492   0.04114   0.0347   0.0131   1.0000
  13.400   1.0445   0.04565   0.04190   0.0349   0.0131   1.0000
  13.450   1.0421   0.04643   0.04272   0.0349   0.0131   1.0000
  13.500   1.0399   0.04718   0.04350   0.0350   0.0130   1.0000
  13.550   1.0374   0.04797   0.04433   0.0350   0.0130   1.0000
  13.600   1.0354   0.04872   0.04511   0.0350   0.0130   1.0000
  13.650   1.0329   0.04953   0.04596   0.0351   0.0130   1.0000
  13.700   1.0303   0.05037   0.04683   0.0351   0.0130   1.0000
  13.750   1.0278   0.05119   0.04768   0.0351   0.0130   1.0000
  13.800   1.0249   0.05202   0.04855   0.0350   0.0130   1.0000
  13.850   1.0213   0.05293   0.04950   0.0350   0.0130   1.0000
  13.900   1.0180   0.05381   0.05041   0.0349   0.0129   1.0000
  13.950   1.0151   0.05469   0.05132   0.0348   0.0129   1.0000
  14.000   1.0125   0.05553   0.05219   0.0347   0.0129   1.0000
  14.050   1.0094   0.05645   0.05315   0.0346   0.0129   1.0000
  14.100   1.0057   0.05747   0.05421   0.0344   0.0129   1.0000
  14.150   1.0029   0.05838   0.05514   0.0342   0.0129   1.0000
  14.200   0.9993   0.05938   0.05618   0.0340   0.0129   1.0000
  14.250   0.9963   0.06034   0.05716   0.0337   0.0129   1.0000
  14.300   0.9920   0.06148   0.05834   0.0334   0.0129   1.0000
  14.350   0.9888   0.06249   0.05938   0.0331   0.0129   1.0000
  14.400   0.9861   0.06344   0.06036   0.0328   0.0129   1.0000
  14.450   0.9814   0.06469   0.06165   0.0325   0.0129   1.0000
  14.500   0.9788   0.06565   0.06263   0.0322   0.0129   1.0000
  14.550   0.9746   0.06683   0.06385   0.0317   0.0129   1.0000
  14.600   0.9705   0.06803   0.06508   0.0312   0.0129   1.0000
  14.650   0.9670   0.06919   0.06626   0.0307   0.0129   1.0000
  14.700   0.9639   0.07028   0.06738   0.0303   0.0128   1.0000
  14.750   0.9603   0.07147   0.06861   0.0298   0.0128   1.0000
  14.800   0.9568   0.07266   0.06982   0.0293   0.0128   1.0000
  14.850   0.9528   0.07393   0.07113   0.0288   0.0128   1.0000
  14.900   0.9489   0.07523   0.07245   0.0281   0.0128   1.0000
  14.950   0.9449   0.07656   0.07382   0.0274   0.0128   1.0000
  15.000   0.9419   0.07775   0.07502   0.0269   0.0128   1.0000
  15.050   0.9377   0.07911   0.07642   0.0262   0.0128   1.0000
  15.100   0.9344   0.08035   0.07768   0.0256   0.0128   1.0000
  15.150   0.9303   0.08173   0.07910   0.0249   0.0128   1.0000
  15.200   0.9256   0.08325   0.08064   0.0241   0.0128   1.0000
  15.250   0.9226   0.08452   0.08193   0.0234   0.0128   1.0000
  15.300   0.9192   0.08588   0.08331   0.0226   0.0129   1.0000
  15.350   0.9153   0.08734   0.08481   0.0218   0.0129   1.0000
  15.400   0.9117   0.08878   0.08627   0.0211   0.0129   1.0000
  15.450   0.9085   0.09015   0.08766   0.0203   0.0129   1.0000
  15.500   0.9049   0.09168   0.08922   0.0194   0.0129   1.0000
  15.550   0.9002   0.09345   0.09102   0.0183   0.0129   1.0000
  15.600   0.8974   0.09486   0.09244   0.0175   0.0129   1.0000
  15.650   0.8941   0.09637   0.09397   0.0166   0.0129   1.0000
  15.700   0.8909   0.09788   0.09551   0.0157   0.0129   1.0000
  15.750   0.8869   0.09963   0.09729   0.0146   0.0129   1.0000
  15.800   0.8826   0.10150   0.09917   0.0135   0.0129   1.0000
  15.850   0.8794   0.10311   0.10081   0.0125   0.0129   1.0000
  15.900   0.8757   0.10484   0.10256   0.0115   0.0129   1.0000
  15.950   0.8720   0.10658   0.10432   0.0104   0.0130   1.0000
  16.000   0.8677   0.10861   0.10638   0.0092   0.0130   1.0000
  16.050   0.8656   0.11008   0.10786   0.0083   0.0130   1.0000
  16.100   0.8607   0.11221   0.11001   0.0070   0.0130   1.0000
  16.150   0.8563   0.11421   0.11204   0.0059   0.0130   1.0000
  16.200   0.8525   0.11619   0.11404   0.0047   0.0130   1.0000
  16.250   0.8478   0.11843   0.11629   0.0034   0.0131   1.0000
  16.300   0.8429   0.12063   0.11851   0.0021   0.0131   1.0000
  16.350   0.8402   0.12230   0.12020   0.0012   0.0131   1.0000
  16.400   0.8349   0.12476   0.12268  -0.0002   0.0131   1.0000
  16.450   0.8303   0.12701   0.12495  -0.0014   0.0132   1.0000
  16.500   0.8254   0.12930   0.12726  -0.0026   0.0132   1.0000
  16.550   0.8208   0.13147   0.12944  -0.0037   0.0132   1.0000
  16.600   0.8153   0.13404   0.13203  -0.0049   0.0133   1.0000
  16.650   0.8096   0.13662   0.13461  -0.0062   0.0133   1.0000
  16.700   0.8045   0.13894   0.13695  -0.0073   0.0133   1.0000
  16.750   0.7991   0.14128   0.13929  -0.0083   0.0134   1.0000
  16.800   0.7949   0.14332   0.14134  -0.0093   0.0134   1.0000
  16.850   0.7890   0.14587   0.14390  -0.0103   0.0134   1.0000
  16.900   0.7830   0.14846   0.14649  -0.0115   0.0134   1.0000
  16.950   0.7779   0.15081   0.14884  -0.0124   0.0134   1.0000
  17.000   0.7730   0.15318   0.15122  -0.0134   0.0134   1.0000
  17.050   0.7681   0.15551   0.15355  -0.0144   0.0134   1.0000
  17.100   0.7631   0.15791   0.15595  -0.0154   0.0134   1.0000
  17.150   0.7582   0.16029   0.15833  -0.0164   0.0133   1.0000
  17.200   0.7518   0.16316   0.16120  -0.0175   0.0133   1.0000
  17.250   0.7140   0.17637   0.17432  -0.0229   0.0122   1.0000
  17.300   0.7155   0.17699   0.17494  -0.0233   0.0121   1.0000
  17.350   0.7167   0.17772   0.17567  -0.0236   0.0121   1.0000
  17.400   0.7180   0.17841   0.17636  -0.0240   0.0120   1.0000
  17.450   0.7196   0.17905   0.17700  -0.0244   0.0120   1.0000
  17.500   0.7209   0.17974   0.17769  -0.0247   0.0119   1.0000
  17.550   0.7221   0.18047   0.17841  -0.0251   0.0119   1.0000
  17.600   0.7236   0.18111   0.17905  -0.0255   0.0118   1.0000
  17.650   0.7247   0.18187   0.17981  -0.0259   0.0118   1.0000
  17.700   0.7261   0.18252   0.18046  -0.0262   0.0117   1.0000
  17.750   0.7274   0.18322   0.18116  -0.0266   0.0116   1.0000
  17.800   0.7288   0.18388   0.18182  -0.0270   0.0115   1.0000
  17.900   0.7295   0.18589   0.18388  -0.0279   0.0115   1.0000
  17.950   0.7298   0.18692   0.18491  -0.0284   0.0115   1.0000
  18.000   0.7307   0.18773   0.18572  -0.0288   0.0115   1.0000
  18.050   0.7317   0.18853   0.18653  -0.0292   0.0114   1.0000
  18.100   0.7329   0.18926   0.18726  -0.0296   0.0113   1.0000
  18.150   0.7342   0.18997   0.18797  -0.0300   0.0112   1.0000
  18.200   0.7354   0.19071   0.18871  -0.0304   0.0112   1.0000
  18.250   0.7368   0.19137   0.18936  -0.0307   0.0110   1.0000
  18.300   0.7382   0.19206   0.19005  -0.0311   0.0109   1.0000
  18.350   0.7395   0.19275   0.19075  -0.0315   0.0108   1.0000
  18.400   0.7408   0.19346   0.19145  -0.0319   0.0107   1.0000
  18.450   0.7422   0.19415   0.19214  -0.0323   0.0106   1.0000
  18.500   0.7436   0.19481   0.19281  -0.0326   0.0105   1.0000
  18.550   0.7449   0.19551   0.19351  -0.0330   0.0103   1.0000
  18.600   0.7463   0.19616   0.19415  -0.0334   0.0102   1.0000
  18.650   0.7477   0.19683   0.19483  -0.0338   0.0101   1.0000
  18.700   0.7491   0.19747   0.19547  -0.0341   0.0099   1.0000
  18.750   0.7505   0.19812   0.19612  -0.0345   0.0098   1.0000
  18.800   0.7520   0.19875   0.19675  -0.0349   0.0097   1.0000
  18.850   0.7534   0.19937   0.19736  -0.0352   0.0096   1.0000
  18.900   0.7549   0.19996   0.19795  -0.0356   0.0095   1.0000
  18.950   0.7563   0.20059   0.19858  -0.0360   0.0094   1.0000
  19.000   0.7577   0.20120   0.19920  -0.0364   0.0093   1.0000
  19.050   0.7593   0.20177   0.19976  -0.0367   0.0092   1.0000
  19.100   0.7608   0.20234   0.20033  -0.0371   0.0091   1.0000
  19.150   0.7624   0.20288   0.20087  -0.0374   0.0091   1.0000
  19.200   0.7639   0.20346   0.20144  -0.0378   0.0090   1.0000
  19.250   0.7653   0.20410   0.20208  -0.0382   0.0089   1.0000
  19.300   0.7667   0.20470   0.20269  -0.0386   0.0088   1.0000
  19.350   0.7682   0.20530   0.20328  -0.0390   0.0088   1.0000
  19.400   0.7696   0.20593   0.20391  -0.0394   0.0087   1.0000
  19.450   0.7710   0.20652   0.20450  -0.0397   0.0086   1.0000
  19.500   0.7725   0.20710   0.20508  -0.0401   0.0086   1.0000
  19.550   0.7740   0.20767   0.20565  -0.0405   0.0085   1.0000
  19.600   0.7756   0.20825   0.20623  -0.0409   0.0085   1.0000
  19.650   0.7770   0.20883   0.20681  -0.0413   0.0084   1.0000
  19.700   0.7784   0.20945   0.20743  -0.0417   0.0084   1.0000
  19.750   0.7799   0.21001   0.20799  -0.0421   0.0083   1.0000
  19.800   0.7813   0.21059   0.20857  -0.0424   0.0083   1.0000
  19.850   0.7828   0.21117   0.20915  -0.0428   0.0082   1.0000
  19.900   0.7842   0.21175   0.20973  -0.0432   0.0082   1.0000
  19.950   0.7856   0.21236   0.21034  -0.0436   0.0081   1.0000
  20.000   0.7869   0.21299   0.21097  -0.0441   0.0081   1.0000
